simulator lang=spectre
V00 (VDD 0) vsource type=dc dc=1
V01 (GND 0) vsource type=dc dc=0

VCIN (CIN 0) vsource type=pwl wave=[0n 0 1n 0 1.0625n 1 2n 1 2.0625n 0 3n 0 3.0625n 1 4n 1 4.0625n 0 5n 0 5.0625n 1 6n 1 6.0625n 0 7n 0 7.0625n 1 8n 1 8.0625n 0 20.0625n 0]

VA0  (A0 0)  vsource type=pwl wave=[0n 0 1n 0 1.0625n 1 2n 1 2.0625n 0 5n 0 5.0625n 1 6n 1 6.0625n 0 9n 0 9.0625n 1 10n 1 10.0625n 0 11n 0 11.0625n 1 12n 1 12.0625n 0 13n 0 13.0625n 1 14n 1 14.0625n 0 17n 0 17.0625n 1 18n 1 18.0625n 0 20.0625n 0]
VA1  (A1 0)  vsource type=pwl wave=[0n 0 1n 0 1.0625n 1 2n 1 2.0625n 0 7n 0 7.0625n 1 8n 1 8.0625n 0 11n 0 11.0625n 1 12n 1 12.0625n 0 15n 0 15.0625n 1 16n 1 16.0625n 0 17n 0 17.0625n 1 18n 1 18.0625n 0 20.0625n 0]
VA2  (A2 0)  vsource type=pwl wave=[0n 0 1n 0 1.0625n 1 2n 1 2.0625n 0 5n 0 5.0625n 1 6n 1 6.0625n 0 11n 0 11.0625n 1 12n 1 12.0625n 0 13n 0 13.0625n 1 14n 1 14.0625n 0 17n 0 17.0625n 1 18n 1 18.0625n 0 20.0625n 0]
VA3  (A3 0)  vsource type=pwl wave=[0n 0 1n 0 1.0625n 1 2n 1 2.0625n 0 7n 0 7.0625n 1 8n 1 8.0625n 0 11n 0 11.0625n 1 12n 1 12.0625n 0 15n 0 15.0625n 1 16n 1 16.0625n 0 17n 0 17.0625n 1 18n 1 18.0625n 0 20.0625n 0]
VA4  (A4 0)  vsource type=pwl wave=[0n 0 1n 0 1.0625n 1 2n 1 2.0625n 0 5n 0 5.0625n 1 6n 1 6.0625n 0 11n 0 11.0625n 1 12n 1 12.0625n 0 13n 0 13.0625n 1 14n 1 14.0625n 0 17n 0 17.0625n 1 18n 1 18.0625n 0 20.0625n 0]
VA5  (A5 0)  vsource type=pwl wave=[0n 0 1n 0 1.0625n 1 2n 1 2.0625n 0 7n 0 7.0625n 1 8n 1 8.0625n 0 11n 0 11.0625n 1 12n 1 12.0625n 0 15n 0 15.0625n 1 16n 1 16.0625n 0 17n 0 17.0625n 1 18n 1 18.0625n 0 20.0625n 0]
VA6  (A6 0)  vsource type=pwl wave=[0n 0 1n 0 1.0625n 1 2n 1 2.0625n 0 5n 0 5.0625n 1 6n 1 6.0625n 0 11n 0 11.0625n 1 12n 1 12.0625n 0 13n 0 13.0625n 1 14n 1 14.0625n 0 17n 0 17.0625n 1 18n 1 18.0625n 0 20.0625n 0]
VA7  (A7 0)  vsource type=pwl wave=[0n 0 1n 0 1.0625n 1 2n 1 2.0625n 0 7n 0 7.0625n 1 8n 1 8.0625n 0 11n 0 11.0625n 1 12n 1 12.0625n 0 15n 0 15.0625n 1 16n 1 16.0625n 0 17n 0 17.0625n 1 18n 1 18.0625n 0 20.0625n 0]
VA8  (A8 0)  vsource type=pwl wave=[0n 0 1n 0 1.0625n 1 2n 1 2.0625n 0 5n 0 5.0625n 1 6n 1 6.0625n 0 11n 0 11.0625n 1 12n 1 12.0625n 0 13n 0 13.0625n 1 14n 1 14.0625n 0 17n 0 17.0625n 1 18n 1 18.0625n 0 20.0625n 0]
VA9  (A9 0)  vsource type=pwl wave=[0n 0 1n 0 1.0625n 1 2n 1 2.0625n 0 7n 0 7.0625n 1 8n 1 8.0625n 0 11n 0 11.0625n 1 12n 1 12.0625n 0 15n 0 15.0625n 1 16n 1 16.0625n 0 17n 0 17.0625n 1 18n 1 18.0625n 0 20.0625n 0]
VA10 (A10 0) vsource type=pwl wave=[0n 0 1n 0 1.0625n 1 2n 1 2.0625n 0 5n 0 5.0625n 1 6n 1 6.0625n 0 11n 0 11.0625n 1 12n 1 12.0625n 0 13n 0 13.0625n 1 14n 1 14.0625n 0 17n 0 17.0625n 1 18n 1 18.0625n 0 20.0625n 0]
VA11 (A11 0) vsource type=pwl wave=[0n 0 1n 0 1.0625n 1 2n 1 2.0625n 0 7n 0 7.0625n 1 8n 1 8.0625n 0 11n 0 11.0625n 1 12n 1 12.0625n 0 15n 0 15.0625n 1 16n 1 16.0625n 0 17n 0 17.0625n 1 18n 1 18.0625n 0 20.0625n 0]
VA12 (A12 0) vsource type=pwl wave=[0n 0 1n 0 1.0625n 1 2n 1 2.0625n 0 5n 0 5.0625n 1 6n 1 6.0625n 0 11n 0 11.0625n 1 12n 1 12.0625n 0 13n 0 13.0625n 1 14n 1 14.0625n 0 17n 0 17.0625n 1 18n 1 18.0625n 0 20.0625n 0]
VA13 (A13 0) vsource type=pwl wave=[0n 0 1n 0 1.0625n 1 2n 1 2.0625n 0 7n 0 7.0625n 1 8n 1 8.0625n 0 11n 0 11.0625n 1 12n 1 12.0625n 0 15n 0 15.0625n 1 16n 1 16.0625n 0 17n 0 17.0625n 1 18n 1 18.0625n 0 20.0625n 0]
VA14 (A14 0) vsource type=pwl wave=[0n 0 1n 0 1.0625n 1 2n 1 2.0625n 0 5n 0 5.0625n 1 6n 1 6.0625n 0 11n 0 11.0625n 1 12n 1 12.0625n 0 13n 0 13.0625n 1 14n 1 14.0625n 0 17n 0 17.0625n 1 18n 1 18.0625n 0 20.0625n 0]
VA15 (A15 0) vsource type=pwl wave=[0n 0 1n 0 1.0625n 1 2n 1 2.0625n 0 7n 0 7.0625n 1 8n 1 8.0625n 0 11n 0 11.0625n 1 12n 1 12.0625n 0 15n 0 15.0625n 1 16n 1 16.0625n 0 17n 0 17.0625n 1 18n 1 18.0625n 0 20.0625n 0]

VB0  (B0 0)  vsource type=pwl wave=[0n 0 3n 0 3.0625n 1 4n 1 4.0625n 0 7n 0 7.0625n 1 8n 1 8.0625n 0 9n 0 9.0625n 1 10n 1 10.0625n 0 11n 0 11.0625n 1 12n 1 12.0625n 0 15n 0 15.0625n 1 16n 1 16.0625n 0 19n 0 19.0625n 1 20n 1 20.0625n 0]
VB1  (B1 0)  vsource type=pwl wave=[0n 0 3n 0 3.0625n 1 4n 1 4.0625n 0 5n 0 5.0625n 1 6n 1 6.0625n 0 9n 0 9.0625n 1 10n 1 10.0625n 0 13n 0 13.0625n 1 14n 1 14.0625n 0 19n 0 19.0625n 1 20n 1 20.0625n 0]
VB2  (B2 0)  vsource type=pwl wave=[0n 0 3n 0 3.0625n 1 4n 1 4.0625n 0 7n 0 7.0625n 1 8n 1 8.0625n 0 9n 0 9.0625n 1 10n 1 10.0625n 0 15n 0 15.0625n 1 16n 1 16.0625n 0 19n 0 19.0625n 1 20n 1 20.0625n 0]
VB3  (B3 0)  vsource type=pwl wave=[0n 0 3n 0 3.0625n 1 4n 1 4.0625n 0 5n 0 5.0625n 1 6n 1 6.0625n 0 9n 0 9.0625n 1 10n 1 10.0625n 0 13n 0 13.0625n 1 14n 1 14.0625n 0 19n 0 19.0625n 1 20n 1 20.0625n 0]
VB4  (B4 0)  vsource type=pwl wave=[0n 0 3n 0 3.0625n 1 4n 1 4.0625n 0 7n 0 7.0625n 1 8n 1 8.0625n 0 9n 0 9.0625n 1 10n 1 10.0625n 0 15n 0 15.0625n 1 16n 1 16.0625n 0 19n 0 19.0625n 1 20n 1 20.0625n 0]
VB5  (B5 0)  vsource type=pwl wave=[0n 0 3n 0 3.0625n 1 4n 1 4.0625n 0 5n 0 5.0625n 1 6n 1 6.0625n 0 9n 0 9.0625n 1 10n 1 10.0625n 0 13n 0 13.0625n 1 14n 1 14.0625n 0 19n 0 19.0625n 1 20n 1 20.0625n 0]
VB6  (B6 0)  vsource type=pwl wave=[0n 0 3n 0 3.0625n 1 4n 1 4.0625n 0 7n 0 7.0625n 1 8n 1 8.0625n 0 9n 0 9.0625n 1 10n 1 10.0625n 0 15n 0 15.0625n 1 16n 1 16.0625n 0 19n 0 19.0625n 1 20n 1 20.0625n 0]
VB7  (B7 0)  vsource type=pwl wave=[0n 0 3n 0 3.0625n 1 4n 1 4.0625n 0 5n 0 5.0625n 1 6n 1 6.0625n 0 9n 0 9.0625n 1 10n 1 10.0625n 0 13n 0 13.0625n 1 14n 1 14.0625n 0 19n 0 19.0625n 1 20n 1 20.0625n 0]
VB8  (B8 0)  vsource type=pwl wave=[0n 0 3n 0 3.0625n 1 4n 1 4.0625n 0 7n 0 7.0625n 1 8n 1 8.0625n 0 9n 0 9.0625n 1 10n 1 10.0625n 0 15n 0 15.0625n 1 16n 1 16.0625n 0 19n 0 19.0625n 1 20n 1 20.0625n 0]
VB9  (B9 0)  vsource type=pwl wave=[0n 0 3n 0 3.0625n 1 4n 1 4.0625n 0 5n 0 5.0625n 1 6n 1 6.0625n 0 9n 0 9.0625n 1 10n 1 10.0625n 0 13n 0 13.0625n 1 14n 1 14.0625n 0 19n 0 19.0625n 1 20n 1 20.0625n 0]
VB10 (B10 0) vsource type=pwl wave=[0n 0 3n 0 3.0625n 1 4n 1 4.0625n 0 7n 0 7.0625n 1 8n 1 8.0625n 0 9n 0 9.0625n 1 10n 1 10.0625n 0 15n 0 15.0625n 1 16n 1 16.0625n 0 19n 0 19.0625n 1 20n 1 20.0625n 0]
VB11 (B11 0) vsource type=pwl wave=[0n 0 3n 0 3.0625n 1 4n 1 4.0625n 0 5n 0 5.0625n 1 6n 1 6.0625n 0 9n 0 9.0625n 1 10n 1 10.0625n 0 13n 0 13.0625n 1 14n 1 14.0625n 0 19n 0 19.0625n 1 20n 1 20.0625n 0]
VB12 (B12 0) vsource type=pwl wave=[0n 0 3n 0 3.0625n 1 4n 1 4.0625n 0 7n 0 7.0625n 1 8n 1 8.0625n 0 9n 0 9.0625n 1 10n 1 10.0625n 0 15n 0 15.0625n 1 16n 1 16.0625n 0 19n 0 19.0625n 1 20n 1 20.0625n 0]
VB13 (B13 0) vsource type=pwl wave=[0n 0 3n 0 3.0625n 1 4n 1 4.0625n 0 5n 0 5.0625n 1 6n 1 6.0625n 0 9n 0 9.0625n 1 10n 1 10.0625n 0 13n 0 13.0625n 1 14n 1 14.0625n 0 19n 0 19.0625n 1 20n 1 20.0625n 0]
VB14 (B14 0) vsource type=pwl wave=[0n 0 3n 0 3.0625n 1 4n 1 4.0625n 0 7n 0 7.0625n 1 8n 1 8.0625n 0 9n 0 9.0625n 1 10n 1 10.0625n 0 15n 0 15.0625n 1 16n 1 16.0625n 0 19n 0 19.0625n 1 20n 1 20.0625n 0]
VB15 (B15 0) vsource type=pwl wave=[0n 0 3n 0 3.0625n 1 4n 1 4.0625n 0 5n 0 5.0625n 1 6n 1 6.0625n 0 9n 0 9.0625n 1 10n 1 10.0625n 0 13n 0 13.0625n 1 14n 1 14.0625n 0 19n 0 19.0625n 1 20n 1 20.0625n 0]


ca00 (COUT 0) capacitor c=100f
ca0  (S0 0)   capacitor c=100f
ca1  (S1 0)   capacitor c=100f
ca2  (S2 0)   capacitor c=100f
ca3  (S3 0)   capacitor c=100f
ca4  (S4 0)   capacitor c=100f
ca5  (S5 0)   capacitor c=100f
ca6  (S6 0)   capacitor c=100f
ca7  (S7 0)   capacitor c=100f
ca8  (S8 0)   capacitor c=100f
ca9  (S9 0)   capacitor c=100f
ca10 (S10 0)  capacitor c=100f
ca11 (S11 0)  capacitor c=100f
ca12 (S12 0)  capacitor c=100f
ca13 (S13 0)  capacitor c=100f
ca14 (S14 0)  capacitor c=100f
ca15 (S15 0)  capacitor c=100f
