simulator lang=spectre
V0 (CIN 0)   vsource type=pwl wave=[0n 0 1n 0 1.05n 1 3.05n 1 3.1n 0 4n 0]

V1  (A_0 0)  vsource type=pwl wave=[0n 0 1n 0 1.05n 1 3.05n 1 3.1n 0 4n 0]
V3  (A_1 0)  vsource type=pwl wave=[0n 0 1n 0 1.05n 1 3.05n 1 3.1n 0 4n 0]
V5  (A_2 0)  vsource type=pwl wave=[0n 0 1n 0 1.05n 1 3.05n 1 3.1n 0 4n 0]
V7  (A_3 0)  vsource type=pwl wave=[0n 0 1n 0 1.05n 1 3.05n 1 3.1n 0 4n 0]
V9  (A_4 0)  vsource type=pwl wave=[0n 0 1n 0 1.05n 1 3.05n 1 3.1n 0 4n 0]
V11 (A_5 0)  vsource type=pwl wave=[0n 0 1n 0 1.05n 1 3.05n 1 3.1n 0 4n 0]
V13 (A_6 0)  vsource type=pwl wave=[0n 0 1n 0 1.05n 1 3.05n 1 3.1n 0 4n 0]
V15 (A_7 0)  vsource type=pwl wave=[0n 0 1n 0 1.05n 1 3.05n 1 3.1n 0 4n 0]
V17 (A_8 0)  vsource type=pwl wave=[0n 0 1n 0 1.05n 1 3.05n 1 3.1n 0 4n 0]
V19 (A_9 0)  vsource type=pwl wave=[0n 0 1n 0 1.05n 1 3.05n 1 3.1n 0 4n 0]
V21 (A_10 0) vsource type=pwl wave=[0n 0 1n 0 1.05n 1 3.05n 1 3.1n 0 4n 0]
V23 (A_11 0) vsource type=pwl wave=[0n 0 1n 0 1.05n 1 3.05n 1 3.1n 0 4n 0]
V25 (A_12 0) vsource type=pwl wave=[0n 0 1n 0 1.05n 1 3.05n 1 3.1n 0 4n 0]
V27 (A_13 0) vsource type=pwl wave=[0n 0 1n 0 1.05n 1 3.05n 1 3.1n 0 4n 0]
V29 (A_14 0) vsource type=pwl wave=[0n 0 1n 0 1.05n 1 3.05n 1 3.1n 0 4n 0]
V31 (A_15 0) vsource type=pwl wave=[0n 0 1n 0 1.05n 1 3.05n 1 3.1n 0 4n 0]

V2  (B_0 0)  vsource type=pwl wave=[0n 0 1n 0 1.05n 1 3.05n 1 3.1n 0 4n 0]
V4  (B_1 0)  vsource type=pwl wave=[0n 0 1n 0 2n 0]
V6  (B_2 0)  vsource type=pwl wave=[0n 0 1n 0 2n 0]
V8  (B_3 0)  vsource type=pwl wave=[0n 0 1n 0 2n 0]
V10 (B_4 0)  vsource type=pwl wave=[0n 0 1n 0 2n 0]
V12 (B_5 0)  vsource type=pwl wave=[0n 0 1n 0 2n 0]
V14 (B_6 0)  vsource type=pwl wave=[0n 0 1n 0 2n 0]
V16 (B_7 0)  vsource type=pwl wave=[0n 0 1n 0 2n 0]
V18 (B_8 0)  vsource type=pwl wave=[0n 0 1n 0 2n 0]
V20 (B_9 0)  vsource type=pwl wave=[0n 0 1n 0 2n 0]
V22 (B_10 0) vsource type=pwl wave=[0n 0 1n 0 2n 0]
V24 (B_11 0) vsource type=pwl wave=[0n 0 1n 0 2n 0]
V26 (B_12 0) vsource type=pwl wave=[0n 0 1n 0 2n 0]
V28 (B_13 0) vsource type=pwl wave=[0n 0 1n 0 2n 0]
V30 (B_14 0) vsource type=pwl wave=[0n 0 1n 0 2n 0]
V32 (B_15 0) vsource type=pwl wave=[0n 0 1n 0 2n 0]
